Circuit: * C:\Users\Samue\OneDrive\Documents\Ltspice Projects\FES LTSpice Simulations\FES Clock Generation and Control.asc

WARNING: Less than two connections to node u1:u1:ua:test.  This node is used by e:u1:u1:ua:test.
WARNING: Less than two connections to node u1:u1:ua:vth_diff.  This node is used by e:u1:u1:ua:vthdiff.
WARNING: Less than two connections to node u1:u1:ub:test.  This node is used by e:u1:u1:ub:test.
WARNING: Less than two connections to node u1:u1:ub:vth_diff.  This node is used by e:u1:u1:ub:vthdiff.
Direct Newton iteration failed to find .op point.  (Use ".option noopiter" to skip.)
Starting Gmin stepping
Gmin = 10
Gmin = 1.07374
Gmin = 0.115292
Gmin = 0.0123794
Gmin = 0.00132923
Gmin = 0.000142725
Gmin = 1.5325e-05
vernier = 0.5
vernier = 0.25
Gmin = 5.56034e-06
vernier = 0.125
vernier = 0.0625
vernier = 0.03125
vernier = 0.015625
vernier = 0.0078125
Gmin = 5.72883e-06
vernier = 0.00390625
vernier = 0.00195312
vernier = 0.000976562
vernier = 0.000488281
Gmin = 0
Gmin stepping failed

Starting source stepping with srcstepmethod=0
Source Step = 3.0303%
Source Step = 33.3333%
Source Step = 63.6364%
Source Step = 75.3788%
Source Step = 75.728%
Source Step = 75.7576%
Source Step = 75.7872%
Source Step = 75.8168%
Source Step = 75.8464%
Source Step = 75.8759%
vernier = 0.00146484
Source Step = 75.9159%
Source Step = 75.9603%
Source Step = 76.0047%
Source Step = 76.0491%
Source Step = 76.0935%
vernier = 0.00219727
Source Step = 76.1512%
Source Step = 76.2177%
Source Step = 76.2843%
Source Step = 76.3509%
Source Step = 76.4175%
vernier = 0.0032959
Source Step = 76.5007%
Source Step = 76.6006%
Source Step = 76.7005%
Source Step = 76.8004%
Source Step = 76.9002%
vernier = 0.00494385
Source Step = 77.0201%
Source Step = 77.1699%
Source Step = 77.3197%
Source Step = 77.4695%
Source Step = 77.6193%
vernier = 0.00741577
Source Step = 77.7916%
Source Step = 78.0163%
Source Step = 78.2411%
Source Step = 78.4658%
Source Step = 78.5332%
Source Step = 78.5894%
Source Step = 78.6456%
Source Step = 78.7017%
Source Step = 78.7579%
vernier = 0.00278091
Source Step = 78.8281%
Source Step = 78.9124%
Source Step = 78.9967%
Source Step = 79.081%
Source Step = 79.1652%
vernier = 0.00417137
Source Step = 79.2663%
Source Step = 79.3928%
Source Step = 79.5192%
Source Step = 79.6456%
Source Step = 79.772%
vernier = 0.00625706
Source Step = 79.9173%
Source Step = 80.1069%
Source Step = 80.2965%
Source Step = 80.4862%
Source Step = 80.6758%
vernier = 0.00938559
Source Step = 80.8843%
Source Step = 81.1687%
Source Step = 81.4532%
Source Step = 81.7376%
Source Step = 82.022%
vernier = 0.0140784
Source Step = 82.3206%
Source Step = 82.7472%
Source Step = 83.1738%
Source Step = 83.6005%
Source Step = 84.0271%
Source Step = 84.4537%
vernier = 0.0211176
Source Step = 85.0936%
Source Step = 85.7336%
Source Step = 86.3735%
Source Step = 87.0134%
Source Step = 87.6533%
vernier = 0.0316764
Source Step = 88.5812%
Source Step = 89.5411%
Source Step = 90.0391%
Source Step = 90.099%
Source Step = 90.159%
Source Step = 90.219%
Source Step = 90.279%
Source Step = 90.339%
Source Step = 90.399%
Source Step = 90.459%
Source Step = 90.519%
Source Step = 90.579%
Source Step = 90.639%
Source Step = 90.699%
Source Step = 90.759%
Source Step = 90.819%
Source Step = 90.879%
Source Step = 90.939%
Source Step = 90.9989%
Source Step = 91.0589%
Source Step = 91.1189%
Source Step = 91.1789%
Source Step = 91.2389%
Source Step = 91.2989%
Source Step = 91.3589%
Source Step = 91.4189%
Source Step = 91.4789%
Source Step = 91.5389%
Source Step = 91.5989%
Source Step = 91.6589%
Source Step = 91.7189%
Source Step = 91.7789%
Source Step = 91.8388%
Source Step = 91.8988%
Source Step = 91.9588%
Source Step = 92.0188%
Source Step = 92.0788%
Source Step = 92.1388%
Source Step = 92.1988%
Source Step = 92.2588%
Source Step = 92.3188%
Source Step = 92.3788%
Source Step = 92.4388%
Source Step = 92.4988%
Source Step = 92.5588%
Source Step = 92.6188%
Source Step = 92.6788%
Source Step = 92.7387%
Source Step = 92.7987%
Source Step = 92.8587%
Source Step = 92.9187%
Source Step = 92.9787%
Source Step = 93.0387%
Source Step = 93.0987%
Source Step = 93.1587%
Source Step = 93.2187%
Source Step = 93.2787%
Source Step = 93.3387%
Source Step = 93.3987%
Source Step = 93.4587%
Source Step = 93.5187%
Source Step = 93.5786%
Source Step = 93.6386%
Source Step = 93.6986%
Source Step = 93.7586%
Source Step = 93.8186%
Source Step = 93.8786%
Source Step = 93.9386%
Source Step = 93.9986%
Source Step = 94.0586%
Source Step = 94.1186%
Source Step = 94.1786%
Source Step = 94.2386%
Source Step = 94.2986%
Source Step = 94.3586%
Source Step = 94.4186%
Source Step = 94.4785%
Source Step = 94.5385%
Source Step = 94.5985%
Source Step = 94.6585%
Source Step = 94.7185%
Source Step = 94.7785%
Source Step = 94.8385%
Source Step = 94.8985%
Source Step = 94.9585%
Source Step = 95.0185%
Source Step = 95.0785%
Source Step = 95.1385%
Source Step = 95.1985%
Source Step = 95.2585%
Source Step = 95.3184%
Source Step = 95.3784%
Source Step = 95.4384%
Source Step = 95.4984%
Source Step = 95.5584%
Source Step = 95.6184%
Source Step = 95.6784%
Source Step = 95.7384%
Source Step = 95.7984%
Source Step = 95.8584%
Source Step = 95.9184%
Source Step = 95.9784%
Source Step = 96.0384%
Source Step = 96.0984%
Source Step = 96.1584%
Source Step = 96.2183%
Source Step = 96.2783%
Source Step = 96.3383%
Source Step = 96.3983%
Source Step = 96.4583%
Source Step = 96.5183%
Source Step = 96.5783%
Source Step = 96.6383%
Source Step = 96.6983%
Source Step = 96.7583%
Source Step = 96.8183%
Source Step = 96.8783%
Source Step = 96.9383%
Source Step = 96.9983%
Source Step = 97.0582%
Source Step = 97.1182%
Source Step = 97.1782%
Source Step = 97.2382%
Source Step = 97.2982%
Source Step = 97.3582%
Source Step = 97.4182%
Source Step = 97.4782%
Source Step = 97.5382%
Source Step = 97.5982%
Source Step = 97.6582%
Source Step = 97.7182%
Source Step = 97.7782%
Source Step = 97.8382%
Source Step = 97.8982%
Source Step = 97.9581%
Source Step = 98.0181%
Source Step = 98.0781%
Source Step = 98.1381%
Source Step = 98.1981%
Source Step = 98.2581%
Source Step = 98.3181%
Source Step = 98.3781%
Source Step = 98.4381%
Source Step = 98.4981%
Source Step = 98.5581%
Source Step = 98.6181%
Source Step = 98.6781%
Source Step = 98.7381%
Source Step = 98.798%
Source Step = 98.858%
Source Step = 98.918%
Source Step = 98.978%
Source Step = 99.038%
Source Step = 99.098%
Source Step = 99.158%
Source Step = 99.218%
Source Step = 99.278%
Source Step = 99.338%
Source Step = 99.398%
Source Step = 99.458%
Source Step = 99.518%
Source Step = 99.578%
Source Step = 99.638%
Source Step = 99.6979%
Source Step = 99.7579%
Source Step = 99.8179%
Source Step = 99.8779%
Source Step = 99.9379%
Source Step = 99.9979%
Source Step = 100%
Source Step = 100%
Source Step = 100%
Source Step = 100%
Source Step = 100%
Source Step = 100%
Source Step = 100%
Source Step = 100%
Source Step = 100%
Source Step = 100%
Source Step = 100%
Source Step = 100%
Source Step = 100%
Source Step = 100%
Source Step = 100%
Source Step = 100%
Source Step = 100%
Source Step = 100%
Source Step = 100%
Source Step = 100%
Source Step = 100%
Source Step = 100%
Source Step = 100%
Source Step = 100%
Source Step = 100%
Source Step = 100%
Source Step = 100%
Source Step = 100%
Source Step = 100%
Source Step = 100%
Source Step = 100%
Source Step = 100%
Source Step = 100%
Source Step = 100%
Source Step = 100%
Source Step = 100%
Source Step = 100%
Source Step = 100%
Source Step = 100%
Source Step = 100%
Source Step = 100%
Source Step = 100%
Source Step = 100%
Source Step = 100%
Source Step = 100%
Source Step = 100%
Source Step = 100%
Source Step = 100%
Source Step = 100%
Source Step = 100%
Source Step = 100%
Source Step = 100%
Source Step = 100%
Source Step = 100%
Source stepping aborted.
Starting source stepping with srcstepmethod=1
Source Step = 3.0303%
Source Step = 33.3333%
Source Step = 63.6364%
Source Step = 93.9394%
Source Step = 99.0089%
Source Step = 99.0385%
Source Step = 99.0681%
Source Step = 99.0977%
Source Step = 99.1272%
Source Step = 99.1568%
Source Step = 99.1864%
Source Step = 99.216%
Source Step = 99.2456%
Source Step = 99.2752%
Source Step = 99.3048%
Source Step = 99.3344%
Source Step = 99.364%
Source Step = 99.3936%
Source Step = 99.4232%
Source Step = 99.4528%
Source Step = 99.4824%
Source Step = 99.512%
Source Step = 99.5415%
Source Step = 99.5711%
Source Step = 99.6007%
Source Step = 99.6303%
Source Step = 99.6599%
Source Step = 99.6895%
Source Step = 99.7191%
Source Step = 99.7487%
Source Step = 99.7783%
Source Step = 99.8079%
Source Step = 99.8375%
Source Step = 99.8671%
Source Step = 99.8967%
Source Step = 99.9263%
Source Step = 99.9558%
Source Step = 99.9854%
Source Step = 100%
Source Step = 100%
Source Step = 100%
Source Step = 100%
Source Step = 100%
Source Step = 100%
Source Step = 100%
Source Step = 100%
Source Step = 100%
Source Step = 100%
Source Step = 100%
Source Step = 100%
Source Step = 100%
Source Step = 100%
Source Step = 100%
Source Step = 100%
Source Step = 100%
Source Step = 100%
Source Step = 100%
Source Step = 100%
Source Step = 100%
Source Step = 100%
Source Step = 100%
Source Step = 100%
Source Step = 100%
Source Step = 100%
Source Step = 100%
Source Step = 100%
Source Step = 100%
Source Step = 100%
Source Step = 100%
Source Step = 100%
Source Step = 100%
Source Step = 100%
Source Step = 100%
Source Step = 100%
Source Step = 100%
Source Step = 100%
Source Step = 100%
Source Step = 100%
Source Step = 100%
Source Step = 100%
Source Step = 100%
Source Step = 100%
Source Step = 100%
Source Step = 100%
Source Step = 100%
Source Step = 100%
Source Step = 100%
Source Step = 100%
Source Step = 100%
Source Step = 100%
Source Step = 100%
Source Step = 100%
Source Step = 100%
Source Step = 100%
Source Step = 100%
Source Step = 100%
Source Step = 100%
Source Step = 100%
Source Step = 100%
Source Step = 100%
Source Step = 100%
Source Step = 100%
Source Step = 100%
Source Step = 100%
Source Step = 100%
Source Step = 100%
Source Step = 100%
Source Step = 100%
Source Step = 100%
Source Step = 100%
Source Step = 100%
Source Step = 100%
Source Step = 100%
Source Step = 100%
Source Step = 100%
Source Step = 100%
Source Step = 100%
Source Step = 100%
Source Step = 100%
Source Step = 100%
Source Step = 100%
Source Step = 100%
Source Step = 100%
Source Step = 100%
Source Step = 100%
Source Step = 100%
Source Step = 100%
Source Step = 100%
Source Step = 100%
Source Step = 100%
Source Step = 100%
Source Step = 100%
Source Step = 100%
Source Step = 100%
Source Step = 100%
Source Step = 100%
Source Step = 100%
Source Step = 100%
Source Step = 100%
Source Step = 100%
Source Step = 100%
Source Step = 100%
Source Step = 100%
Source Step = 100%
Source Step = 100%
Source Step = 100%
Source Step = 100%
Source Step = 100%
Source Step = 100%
Source Step = 100%
Source Step = 100%
Source Step = 100%
Source Step = 100%
Source Step = 100%
Source Step = 100%
Source Step = 100%
Source Step = 100%
Source Step = 100%
Source Step = 100%
Source Step = 100%
Source Step = 100%
Source Step = 100%
Source Step = 100%
Source Step = 100%
Source stepping aborted.
Pseudo transient terminated at 100.008 s, solution accepted ready or not!

Date: Mon Dec  4 14:57:18 2023
Total elapsed time: 29.659 seconds.

tnom = 27
temp = 27
method = modified trap
totiter = 1764035
traniter = 6402
tranpoints = 2320
accept = 1963
rejected = 46447
matrix size = 126
fillins = 24
solver = Normal
Avg thread counts: 3.5/3.7/2.7/1.9
Matrix Compiler1:     241 opcodes  0.5/[0.3]/0.4
Matrix Compiler2: 7.61 KB object code size  1.5/1.4/[0.5]

